  Version,9.5;

  Timestep,1;

  LifeCycleCost:Parameters,
    Life Cycle Cost Parameters,  !- Name
    EndOfYear,               !- Discounting Convention
    ConstantDollar,          !- Inflation Approach
    0.03,                    !- Real Discount Rate
    ,                        !- Nominal Discount Rate
    ,                        !- Inflation
    ,                        !- Base Date Month
    2011,                    !- Base Date Year
    ,                        !- Service Date Month
    2011,                    !- Service Date Year
    25,                      !- Length of Study Period in Years
    ,                        !- Tax rate
    None;                    !- Depreciation Method

  LifeCycleCost:UsePriceEscalation,
    U.S. Avg  Commercial-Electricity,  !- LCC Price Escalation Name
    Electricity,             !- Resource
    2011,                    !- Escalation Start Year
    January,                 !- Escalation Start Month
    0.9838,                  !- Year 1 Escalation
    0.9730,                  !- Year 2 Escalation
    0.9632,                  !- Year 3 Escalation
    0.9611,                  !- Year 4 Escalation
    0.9571,                  !- Year 5 Escalation
    0.9553,                  !- Year 6 Escalation
    0.9539,                  !- Year 7 Escalation
    0.9521,                  !- Year 8 Escalation
    0.9546,                  !- Year 9 Escalation
    0.9550,                  !- <none>
    0.9553,                  !- <none>
    0.9564,                  !- <none>
    0.9575,                  !- <none>
    0.9596,                  !- <none>
    0.9618,                  !- <none>
    0.9614,                  !- <none>
    0.9618,                  !- <none>
    0.9618,                  !- <none>
    0.9593,                  !- <none>
    0.9589,                  !- <none>
    0.9607,                  !- <none>
    0.9625,                  !- <none>
    0.9650,                  !- <none>
    0.9708,                  !- <none>
    0.9751,                  !- <none>
    0.9762,                  !- <none>
    0.9766,                  !- <none>
    0.9766,                  !- <none>
    0.9769,                  !- <none>
    0.9773;                  !- <none>

  LifeCycleCost:UsePriceEscalation,
    U.S. Avg  Commercial-Distillate Oil,  !- LCC Price Escalation Name
    FuelOilNo1,              !- Resource
    2011,                    !- Escalation Start Year
    January,                 !- Escalation Start Month
    0.9714,                  !- Year 1 Escalation
    0.9730,                  !- Year 2 Escalation
    0.9942,                  !- Year 3 Escalation
    1.0164,                  !- Year 4 Escalation
    1.0541,                  !- Year 5 Escalation
    1.0928,                  !- Year 6 Escalation
    1.1267,                  !- Year 7 Escalation
    1.1580,                  !- Year 8 Escalation
    1.1792,                  !- Year 9 Escalation
    1.1967,                  !- <none>
    1.2200,                  !- <none>
    1.2333,                  !- <none>
    1.2566,                  !- <none>
    1.2709,                  !- <none>
    1.2826,                  !- <none>
    1.2985,                  !- <none>
    1.3102,                  !- <none>
    1.3250,                  !- <none>
    1.3261,                  !- <none>
    1.3282,                  !- <none>
    1.3324,                  !- <none>
    1.3356,                  !- <none>
    1.3431,                  !- <none>
    1.3510,                  !- <none>
    1.3568,                  !- <none>
    1.3606,                  !- <none>
    1.3637,                  !- <none>
    1.3674,                  !- <none>
    1.3706,                  !- <none>
    1.3743;                  !- <none>

  LifeCycleCost:UsePriceEscalation,
    U.S. Avg  Commercial-Residual Oil,  !- LCC Price Escalation Name
    FuelOilNo2,              !- Resource
    2011,                    !- Escalation Start Year
    January,                 !- Escalation Start Month
    0.8469,                  !- Year 1 Escalation
    0.8257,                  !- Year 2 Escalation
    0.8681,                  !- Year 3 Escalation
    0.8988,                  !- Year 4 Escalation
    0.9289,                  !- Year 5 Escalation
    0.9604,                  !- Year 6 Escalation
    0.9897,                  !- Year 7 Escalation
    1.0075,                  !- Year 8 Escalation
    1.0314,                  !- Year 9 Escalation
    1.0554,                  !- <none>
    1.0861,                  !- <none>
    1.1278,                  !- <none>
    1.1497,                  !- <none>
    1.1620,                  !- <none>
    1.1743,                  !- <none>
    1.1852,                  !- <none>
    1.1948,                  !- <none>
    1.2037,                  !- <none>
    1.2071,                  !- <none>
    1.2119,                  !- <none>
    1.2139,                  !- <none>
    1.2194,                  !- <none>
    1.2276,                  !- <none>
    1.2365,                  !- <none>
    1.2420,                  !- <none>
    1.2461,                  !- <none>
    1.2509,                  !- <none>
    1.2550,                  !- <none>
    1.2591,                  !- <none>
    1.2638;                  !- <none>

  LifeCycleCost:UsePriceEscalation,
    U.S. Avg  Commercial-Natural gas,  !- LCC Price Escalation Name
    NaturalGas,              !- Resource
    2011,                    !- Escalation Start Year
    January,                 !- Escalation Start Month
    0.9823,                  !- Year 1 Escalation
    0.9557,                  !- Year 2 Escalation
    0.9279,                  !- Year 3 Escalation
    0.9257,                  !- Year 4 Escalation
    0.9346,                  !- Year 5 Escalation
    0.9412,                  !- Year 6 Escalation
    0.9512,                  !- Year 7 Escalation
    0.9645,                  !- Year 8 Escalation
    0.9856,                  !- Year 9 Escalation
    1.0067,                  !- <none>
    1.0222,                  !- <none>
    1.0410,                  !- <none>
    1.0610,                  !- <none>
    1.0787,                  !- <none>
    1.0942,                  !- <none>
    1.1098,                  !- <none>
    1.1220,                  !- <none>
    1.1308,                  !- <none>
    1.1386,                  !- <none>
    1.1486,                  !- <none>
    1.1619,                  !- <none>
    1.1763,                  !- <none>
    1.1918,                  !- <none>
    1.2118,                  !- <none>
    1.2284,                  !- <none>
    1.2439,                  !- <none>
    1.2605,                  !- <none>
    1.2772,                  !- <none>
    1.2938,                  !- <none>
    1.3115;                  !- <none>

  LifeCycleCost:UsePriceEscalation,
    U.S. Avg  Commercial-Coal,  !- LCC Price Escalation Name
    Coal,                    !- Resource
    2011,                    !- Escalation Start Year
    January,                 !- Escalation Start Month
    0.9970,                  !- Year 1 Escalation
    1.0089,                  !- Year 2 Escalation
    1.0089,                  !- Year 3 Escalation
    0.9941,                  !- Year 4 Escalation
    0.9941,                  !- Year 5 Escalation
    1.0000,                  !- Year 6 Escalation
    1.0030,                  !- Year 7 Escalation
    1.0059,                  !- Year 8 Escalation
    1.0089,                  !- Year 9 Escalation
    1.0119,                  !- <none>
    1.0148,                  !- <none>
    1.0178,                  !- <none>
    1.0208,                  !- <none>
    1.0267,                  !- <none>
    1.0297,                  !- <none>
    1.0356,                  !- <none>
    1.0415,                  !- <none>
    1.0534,                  !- <none>
    1.0564,                  !- <none>
    1.0593,                  !- <none>
    1.0653,                  !- <none>
    1.0712,                  !- <none>
    1.0742,                  !- <none>
    1.0801,                  !- <none>
    1.0831,                  !- <none>
    1.0831,                  !- <none>
    1.0861,                  !- <none>
    1.0890,                  !- <none>
    1.0920,                  !- <none>
    1.0950;                  !- <none>

  Building,
    Keelson Ln 17301-b,      !- Name
    ,                        !- North Axis {deg}
    City,                    !- Terrain
    ,                        !- Loads Convergence Tolerance Value {W}
    ,                        !- Temperature Convergence Tolerance Value {deltaC}
    ,                        !- Solar Distribution
    ,                        !- Maximum Number of Warmup Days
    ;                        !- Minimum Number of Warmup Days

  Shading:Building:Detailed,
    Shading Surface 121,     !- Name
    ,                        !- Transmittance Schedule Name
    ,                        !- Number of Vertices
    -22.7355954336257,195.674509424117,0,  !- X,Y,Z ==> Vertex 1 {m}
    -22.7356283358636,181.826320431851,0,  !- X,Y,Z ==> Vertex 2 {m}
    -66.5528857821807,181.82652485046,0,  !- X,Y,Z ==> Vertex 3 {m}
    -66.5527894681258,195.674713842186,0;  !- X,Y,Z ==> Vertex 4 {m}

  Shading:Building:Detailed,
    Shading Surface 122,     !- Name
    ,                        !- Transmittance Schedule Name
    ,                        !- Number of Vertices
    -22.7356283358636,181.826320431851,6,  !- X,Y,Z ==> Vertex 1 {m}
    -22.7356283358636,181.826320431851,0,  !- X,Y,Z ==> Vertex 2 {m}
    -22.7355954336257,195.674509424117,0,  !- X,Y,Z ==> Vertex 3 {m}
    -22.7355954336257,195.674509424117,6;  !- X,Y,Z ==> Vertex 4 {m}

  Shading:Building:Detailed,
    Shading Surface 123,     !- Name
    ,                        !- Transmittance Schedule Name
    ,                        !- Number of Vertices
    -66.5528857821807,181.82652485046,6,  !- X,Y,Z ==> Vertex 1 {m}
    -66.5528857821807,181.82652485046,0,  !- X,Y,Z ==> Vertex 2 {m}
    -22.7356283358636,181.826320431851,0,  !- X,Y,Z ==> Vertex 3 {m}
    -22.7356283358636,181.826320431851,6;  !- X,Y,Z ==> Vertex 4 {m}

  Shading:Building:Detailed,
    Shading Surface 124,     !- Name
    ,                        !- Transmittance Schedule Name
    ,                        !- Number of Vertices
    -66.5527894681258,195.674713842186,6,  !- X,Y,Z ==> Vertex 1 {m}
    -66.5527894681258,195.674713842186,0,  !- X,Y,Z ==> Vertex 2 {m}
    -66.5528857821807,181.82652485046,0,  !- X,Y,Z ==> Vertex 3 {m}
    -66.5528857821807,181.82652485046,6;  !- X,Y,Z ==> Vertex 4 {m}

  Shading:Building:Detailed,
    Shading Surface 125,     !- Name
    ,                        !- Transmittance Schedule Name
    ,                        !- Number of Vertices
    -22.7355954336257,195.674509424117,6,  !- X,Y,Z ==> Vertex 1 {m}
    -22.7355954336257,195.674509424117,0,  !- X,Y,Z ==> Vertex 2 {m}
    -66.5527894681258,195.674713842186,0,  !- X,Y,Z ==> Vertex 3 {m}
    -66.5527894681258,195.674713842186,6;  !- X,Y,Z ==> Vertex 4 {m}

  Shading:Building:Detailed,
    Shading Surface 126,     !- Name
    ,                        !- Transmittance Schedule Name
    ,                        !- Number of Vertices
    -66.5527894681258,195.674713842186,6,  !- X,Y,Z ==> Vertex 1 {m}
    -66.5528857821807,181.82652485046,6,  !- X,Y,Z ==> Vertex 2 {m}
    -22.7356283358636,181.826320431851,6,  !- X,Y,Z ==> Vertex 3 {m}
    -22.7355954336257,195.674509424117,6;  !- X,Y,Z ==> Vertex 4 {m}

  Shading:Building:Detailed,
    Shading Surface 111,     !- Name
    ,                        !- Transmittance Schedule Name
    ,                        !- Number of Vertices
    -61.4355929451958,173.867752340164,0,  !- X,Y,Z ==> Vertex 1 {m}
    -57.2777494449552,173.549376882389,0,  !- X,Y,Z ==> Vertex 2 {m}
    -57.1178190072033,175.777823382246,0,  !- X,Y,Z ==> Vertex 3 {m}
    -42.885198616803,175.459399408634,0,  !- X,Y,Z ==> Vertex 4 {m}
    -42.8852499790564,163.998806640736,0,  !- X,Y,Z ==> Vertex 5 {m}
    -67.9922643063808,164.158127086027,0,  !- X,Y,Z ==> Vertex 6 {m}
    -68.3120068500887,177.051295059535,0,  !- X,Y,Z ==> Vertex 7 {m}
    -61.7554046064446,177.369600054399,0;  !- X,Y,Z ==> Vertex 8 {m}

  Shading:Building:Detailed,
    Shading Surface 112,     !- Name
    ,                        !- Transmittance Schedule Name
    ,                        !- Number of Vertices
    -57.2777494449552,173.549376882389,6,  !- X,Y,Z ==> Vertex 1 {m}
    -57.2777494449552,173.549376882389,0,  !- X,Y,Z ==> Vertex 2 {m}
    -61.4355929451958,173.867752340164,0,  !- X,Y,Z ==> Vertex 3 {m}
    -61.4355929451958,173.867752340164,6;  !- X,Y,Z ==> Vertex 4 {m}

  Shading:Building:Detailed,
    Shading Surface 113,     !- Name
    ,                        !- Transmittance Schedule Name
    ,                        !- Number of Vertices
    -57.1178190072033,175.777823382246,6,  !- X,Y,Z ==> Vertex 1 {m}
    -57.1178190072033,175.777823382246,0,  !- X,Y,Z ==> Vertex 2 {m}
    -57.2777494449552,173.549376882389,0,  !- X,Y,Z ==> Vertex 3 {m}
    -57.2777494449552,173.549376882389,6;  !- X,Y,Z ==> Vertex 4 {m}

  Shading:Building:Detailed,
    Shading Surface 114,     !- Name
    ,                        !- Transmittance Schedule Name
    ,                        !- Number of Vertices
    -42.885198616803,175.459399408634,6,  !- X,Y,Z ==> Vertex 1 {m}
    -42.885198616803,175.459399408634,0,  !- X,Y,Z ==> Vertex 2 {m}
    -57.1178190072033,175.777823382246,0,  !- X,Y,Z ==> Vertex 3 {m}
    -57.1178190072033,175.777823382246,6;  !- X,Y,Z ==> Vertex 4 {m}

  Shading:Building:Detailed,
    Shading Surface 115,     !- Name
    ,                        !- Transmittance Schedule Name
    ,                        !- Number of Vertices
    -42.8852499790564,163.998806640736,6,  !- X,Y,Z ==> Vertex 1 {m}
    -42.8852499790564,163.998806640736,0,  !- X,Y,Z ==> Vertex 2 {m}
    -42.885198616803,175.459399408634,0,  !- X,Y,Z ==> Vertex 3 {m}
    -42.885198616803,175.459399408634,6;  !- X,Y,Z ==> Vertex 4 {m}

  Shading:Building:Detailed,
    Shading Surface 116,     !- Name
    ,                        !- Transmittance Schedule Name
    ,                        !- Number of Vertices
    -67.9922643063808,164.158127086027,6,  !- X,Y,Z ==> Vertex 1 {m}
    -67.9922643063808,164.158127086027,0,  !- X,Y,Z ==> Vertex 2 {m}
    -42.8852499790564,163.998806640736,0,  !- X,Y,Z ==> Vertex 3 {m}
    -42.8852499790564,163.998806640736,6;  !- X,Y,Z ==> Vertex 4 {m}

  Shading:Building:Detailed,
    Shading Surface 117,     !- Name
    ,                        !- Transmittance Schedule Name
    ,                        !- Number of Vertices
    -68.3120068500887,177.051295059535,6,  !- X,Y,Z ==> Vertex 1 {m}
    -68.3120068500887,177.051295059535,0,  !- X,Y,Z ==> Vertex 2 {m}
    -67.9922643063808,164.158127086027,0,  !- X,Y,Z ==> Vertex 3 {m}
    -67.9922643063808,164.158127086027,6;  !- X,Y,Z ==> Vertex 4 {m}

  Shading:Building:Detailed,
    Shading Surface 118,     !- Name
    ,                        !- Transmittance Schedule Name
    ,                        !- Number of Vertices
    -61.7554046064446,177.369600054399,6,  !- X,Y,Z ==> Vertex 1 {m}
    -61.7554046064446,177.369600054399,0,  !- X,Y,Z ==> Vertex 2 {m}
    -68.3120068500887,177.051295059535,0,  !- X,Y,Z ==> Vertex 3 {m}
    -68.3120068500887,177.051295059535,6;  !- X,Y,Z ==> Vertex 4 {m}

  Shading:Building:Detailed,
    Shading Surface 119,     !- Name
    ,                        !- Transmittance Schedule Name
    ,                        !- Number of Vertices
    -61.4355929451958,173.867752340164,6,  !- X,Y,Z ==> Vertex 1 {m}
    -61.4355929451958,173.867752340164,0,  !- X,Y,Z ==> Vertex 2 {m}
    -61.7554046064446,177.369600054399,0,  !- X,Y,Z ==> Vertex 3 {m}
    -61.7554046064446,177.369600054399,6;  !- X,Y,Z ==> Vertex 4 {m}

  Shading:Building:Detailed,
    Shading Surface 120,     !- Name
    ,                        !- Transmittance Schedule Name
    ,                        !- Number of Vertices
    -61.7554046064446,177.369600054399,6,  !- X,Y,Z ==> Vertex 1 {m}
    -68.3120068500887,177.051295059535,6,  !- X,Y,Z ==> Vertex 2 {m}
    -67.9922643063808,164.158127086027,6,  !- X,Y,Z ==> Vertex 3 {m}
    -42.8852499790564,163.998806640736,6,  !- X,Y,Z ==> Vertex 4 {m}
    -42.885198616803,175.459399408634,6,  !- X,Y,Z ==> Vertex 5 {m}
    -57.1178190072033,175.777823382246,6,  !- X,Y,Z ==> Vertex 6 {m}
    -57.2777494449552,173.549376882389,6,  !- X,Y,Z ==> Vertex 7 {m}
    -61.4355929451958,173.867752340164,6;  !- X,Y,Z ==> Vertex 8 {m}

  Shading:Building:Detailed,
    Shading Surface 103,     !- Name
    ,                        !- Transmittance Schedule Name
    ,                        !- Number of Vertices
    -63.1454067558218,160.214034518784,6,  !- X,Y,Z ==> Vertex 1 {m}
    -63.1454067558218,160.214034518784,0,  !- X,Y,Z ==> Vertex 2 {m}
    -62.9274816091235,156.526091088129,0,  !- X,Y,Z ==> Vertex 3 {m}
    -62.9274816091235,156.526091088129,6;  !- X,Y,Z ==> Vertex 4 {m}

  Shading:Building:Detailed,
    Shading Surface 104,     !- Name
    ,                        !- Transmittance Schedule Name
    ,                        !- Number of Vertices
    -43.9658627092952,159.563113991082,6,  !- X,Y,Z ==> Vertex 1 {m}
    -43.9658627092952,159.563113991082,0,  !- X,Y,Z ==> Vertex 2 {m}
    -63.1454067558218,160.214034518784,0,  !- X,Y,Z ==> Vertex 3 {m}
    -63.1454067558218,160.214034518784,6;  !- X,Y,Z ==> Vertex 4 {m}

  Shading:Building:Detailed,
    Shading Surface 105,     !- Name
    ,                        !- Transmittance Schedule Name
    ,                        !- Number of Vertices
    -43.9658627092952,159.563113991082,0,  !- X,Y,Z ==> Vertex 1 {m}
    -43.9659255027469,145.896026859815,0,  !- X,Y,Z ==> Vertex 2 {m}
    -68.5942443419618,145.896171702891,0,  !- X,Y,Z ==> Vertex 3 {m}
    -68.3762171137473,156.743066273111,0,  !- X,Y,Z ==> Vertex 4 {m}
    -62.9274816091235,156.526091088129,0,  !- X,Y,Z ==> Vertex 5 {m}
    -63.1454067558218,160.214034518784,0;  !- X,Y,Z ==> Vertex 6 {m}

  Shading:Building:Detailed,
    Shading Surface 106,     !- Name
    ,                        !- Transmittance Schedule Name
    ,                        !- Number of Vertices
    -43.9659255027469,145.896026859815,6,  !- X,Y,Z ==> Vertex 1 {m}
    -43.9659255027469,145.896026859815,0,  !- X,Y,Z ==> Vertex 2 {m}
    -43.9658627092952,159.563113991082,0,  !- X,Y,Z ==> Vertex 3 {m}
    -43.9658627092952,159.563113991082,6;  !- X,Y,Z ==> Vertex 4 {m}

  Shading:Building:Detailed,
    Shading Surface 107,     !- Name
    ,                        !- Transmittance Schedule Name
    ,                        !- Number of Vertices
    -68.5942443419618,145.896171702891,6,  !- X,Y,Z ==> Vertex 1 {m}
    -68.5942443419618,145.896171702891,0,  !- X,Y,Z ==> Vertex 2 {m}
    -43.9659255027469,145.896026859815,0,  !- X,Y,Z ==> Vertex 3 {m}
    -43.9659255027469,145.896026859815,6;  !- X,Y,Z ==> Vertex 4 {m}

  Shading:Building:Detailed,
    Shading Surface 108,     !- Name
    ,                        !- Transmittance Schedule Name
    ,                        !- Number of Vertices
    -68.3762171137473,156.743066273111,6,  !- X,Y,Z ==> Vertex 1 {m}
    -68.3762171137473,156.743066273111,0,  !- X,Y,Z ==> Vertex 2 {m}
    -68.5942443419618,145.896171702891,0,  !- X,Y,Z ==> Vertex 3 {m}
    -68.5942443419618,145.896171702891,6;  !- X,Y,Z ==> Vertex 4 {m}

  Shading:Building:Detailed,
    Shading Surface 109,     !- Name
    ,                        !- Transmittance Schedule Name
    ,                        !- Number of Vertices
    -62.9274816091235,156.526091088129,6,  !- X,Y,Z ==> Vertex 1 {m}
    -62.9274816091235,156.526091088129,0,  !- X,Y,Z ==> Vertex 2 {m}
    -68.3762171137473,156.743066273111,0,  !- X,Y,Z ==> Vertex 3 {m}
    -68.3762171137473,156.743066273111,6;  !- X,Y,Z ==> Vertex 4 {m}

  Shading:Building:Detailed,
    Shading Surface 110,     !- Name
    ,                        !- Transmittance Schedule Name
    ,                        !- Number of Vertices
    -63.1454067558218,160.214034518784,6,  !- X,Y,Z ==> Vertex 1 {m}
    -62.9274816091235,156.526091088129,6,  !- X,Y,Z ==> Vertex 2 {m}
    -68.3762171137473,156.743066273111,6,  !- X,Y,Z ==> Vertex 3 {m}
    -68.5942443419618,145.896171702891,6,  !- X,Y,Z ==> Vertex 4 {m}
    -43.9659255027469,145.896026859815,6,  !- X,Y,Z ==> Vertex 5 {m}
    -43.9658627092952,159.563113991082,6;  !- X,Y,Z ==> Vertex 6 {m}

  Shading:Building:Detailed,
    Shading Surface 127,     !- Name
    ,                        !- Transmittance Schedule Name
    ,                        !- Number of Vertices
    -62.4916818153845,141.340429898817,6,  !- X,Y,Z ==> Vertex 1 {m}
    -62.4917753181895,127.022501605749,6,  !- X,Y,Z ==> Vertex 2 {m}
    -39.3890589825198,127.022378626284,6,  !- X,Y,Z ==> Vertex 3 {m}
    -39.3890000466085,141.340306919459,6;  !- X,Y,Z ==> Vertex 4 {m}

  Shading:Building:Detailed,
    Shading Surface 128,     !- Name
    ,                        !- Transmittance Schedule Name
    ,                        !- Number of Vertices
    -62.4917753181895,127.022501605749,6,  !- X,Y,Z ==> Vertex 1 {m}
    -62.4917753181895,127.022501605749,0,  !- X,Y,Z ==> Vertex 2 {m}
    -39.3890589825198,127.022378626284,0,  !- X,Y,Z ==> Vertex 3 {m}
    -39.3890589825198,127.022378626284,6;  !- X,Y,Z ==> Vertex 4 {m}

  Shading:Building:Detailed,
    Shading Surface 129,     !- Name
    ,                        !- Transmittance Schedule Name
    ,                        !- Number of Vertices
    -39.3890589825198,127.022378626284,6,  !- X,Y,Z ==> Vertex 1 {m}
    -39.3890589825198,127.022378626284,0,  !- X,Y,Z ==> Vertex 2 {m}
    -39.3890000466085,141.340306919459,0,  !- X,Y,Z ==> Vertex 3 {m}
    -39.3890000466085,141.340306919459,6;  !- X,Y,Z ==> Vertex 4 {m}

  Shading:Building:Detailed,
    Shading Surface 130,     !- Name
    ,                        !- Transmittance Schedule Name
    ,                        !- Number of Vertices
    -39.3890000466085,141.340306919459,0,  !- X,Y,Z ==> Vertex 1 {m}
    -39.3890589825198,127.022378626284,0,  !- X,Y,Z ==> Vertex 2 {m}
    -62.4917753181895,127.022501605749,0,  !- X,Y,Z ==> Vertex 3 {m}
    -62.4916818153845,141.340429898817,0;  !- X,Y,Z ==> Vertex 4 {m}

  Shading:Building:Detailed,
    Shading Surface 131,     !- Name
    ,                        !- Transmittance Schedule Name
    ,                        !- Number of Vertices
    -39.3890000466085,141.340306919459,6,  !- X,Y,Z ==> Vertex 1 {m}
    -39.3890000466085,141.340306919459,0,  !- X,Y,Z ==> Vertex 2 {m}
    -62.4916818153845,141.340429898817,0,  !- X,Y,Z ==> Vertex 3 {m}
    -62.4916818153845,141.340429898817,6;  !- X,Y,Z ==> Vertex 4 {m}

  Shading:Building:Detailed,
    Shading Surface 132,     !- Name
    ,                        !- Transmittance Schedule Name
    ,                        !- Number of Vertices
    -62.4916818153845,141.340429898817,6,  !- X,Y,Z ==> Vertex 1 {m}
    -62.4916818153845,141.340429898817,0,  !- X,Y,Z ==> Vertex 2 {m}
    -62.4917753181895,127.022501605749,0,  !- X,Y,Z ==> Vertex 3 {m}
    -62.4917753181895,127.022501605749,6;  !- X,Y,Z ==> Vertex 4 {m}

  Shading:Building:Detailed,
    Shading Surface 161,     !- Name
    ,                        !- Transmittance Schedule Name
    ,                        !- Number of Vertices
    -39.4363796910686,99.6831798553227,0,  !- X,Y,Z ==> Vertex 1 {m}
    -51.9922547860179,91.7639971110565,0,  !- X,Y,Z ==> Vertex 2 {m}
    -65.0452145078966,112.923289082935,0,  !- X,Y,Z ==> Vertex 3 {m}
    -52.7238268323284,120.696579336644,0;  !- X,Y,Z ==> Vertex 4 {m}

  Shading:Building:Detailed,
    Shading Surface 162,     !- Name
    ,                        !- Transmittance Schedule Name
    ,                        !- Number of Vertices
    -52.7238268323284,120.696579336644,6,  !- X,Y,Z ==> Vertex 1 {m}
    -65.0452145078966,112.923289082935,6,  !- X,Y,Z ==> Vertex 2 {m}
    -51.9922547860179,91.7639971110565,6,  !- X,Y,Z ==> Vertex 3 {m}
    -39.4363796910686,99.6831798553227,6;  !- X,Y,Z ==> Vertex 4 {m}

  Shading:Building:Detailed,
    Shading Surface 163,     !- Name
    ,                        !- Transmittance Schedule Name
    ,                        !- Number of Vertices
    -52.7238268323284,120.696579336644,6,  !- X,Y,Z ==> Vertex 1 {m}
    -52.7238268323284,120.696579336644,0,  !- X,Y,Z ==> Vertex 2 {m}
    -65.0452145078966,112.923289082935,0,  !- X,Y,Z ==> Vertex 3 {m}
    -65.0452145078966,112.923289082935,6;  !- X,Y,Z ==> Vertex 4 {m}

  Shading:Building:Detailed,
    Shading Surface 164,     !- Name
    ,                        !- Transmittance Schedule Name
    ,                        !- Number of Vertices
    -39.4363796910686,99.6831798553227,6,  !- X,Y,Z ==> Vertex 1 {m}
    -39.4363796910686,99.6831798553227,0,  !- X,Y,Z ==> Vertex 2 {m}
    -52.7238268323284,120.696579336644,0,  !- X,Y,Z ==> Vertex 3 {m}
    -52.7238268323284,120.696579336644,6;  !- X,Y,Z ==> Vertex 4 {m}

  Shading:Building:Detailed,
    Shading Surface 165,     !- Name
    ,                        !- Transmittance Schedule Name
    ,                        !- Number of Vertices
    -65.0452145078966,112.923289082935,6,  !- X,Y,Z ==> Vertex 1 {m}
    -65.0452145078966,112.923289082935,0,  !- X,Y,Z ==> Vertex 2 {m}
    -51.9922547860179,91.7639971110565,0,  !- X,Y,Z ==> Vertex 3 {m}
    -51.9922547860179,91.7639971110565,6;  !- X,Y,Z ==> Vertex 4 {m}

  Shading:Building:Detailed,
    Shading Surface 166,     !- Name
    ,                        !- Transmittance Schedule Name
    ,                        !- Number of Vertices
    -51.9922547860179,91.7639971110565,6,  !- X,Y,Z ==> Vertex 1 {m}
    -51.9922547860179,91.7639971110565,0,  !- X,Y,Z ==> Vertex 2 {m}
    -39.4363796910686,99.6831798553227,0,  !- X,Y,Z ==> Vertex 3 {m}
    -39.4363796910686,99.6831798553227,6;  !- X,Y,Z ==> Vertex 4 {m}

  Shading:Building:Detailed,
    Shading Surface 155,     !- Name
    ,                        !- Transmittance Schedule Name
    ,                        !- Number of Vertices
    -68.0460659318339,110.978669444334,6,  !- X,Y,Z ==> Vertex 1 {m}
    -79.3587924750953,103.801951521653,6,  !- X,Y,Z ==> Vertex 2 {m}
    -66.0572237418932,82.2714033169173,6,  !- X,Y,Z ==> Vertex 3 {m}
    -54.2472205160659,89.4481501292807,6;  !- X,Y,Z ==> Vertex 4 {m}

  Shading:Building:Detailed,
    Shading Surface 156,     !- Name
    ,                        !- Transmittance Schedule Name
    ,                        !- Number of Vertices
    -68.0460659318339,110.978669444334,6,  !- X,Y,Z ==> Vertex 1 {m}
    -68.0460659318339,110.978669444334,0,  !- X,Y,Z ==> Vertex 2 {m}
    -79.3587924750953,103.801951521653,0,  !- X,Y,Z ==> Vertex 3 {m}
    -79.3587924750953,103.801951521653,6;  !- X,Y,Z ==> Vertex 4 {m}

  Shading:Building:Detailed,
    Shading Surface 157,     !- Name
    ,                        !- Transmittance Schedule Name
    ,                        !- Number of Vertices
    -54.2472205160659,89.4481501292807,6,  !- X,Y,Z ==> Vertex 1 {m}
    -54.2472205160659,89.4481501292807,0,  !- X,Y,Z ==> Vertex 2 {m}
    -68.0460659318339,110.978669444334,0,  !- X,Y,Z ==> Vertex 3 {m}
    -68.0460659318339,110.978669444334,6;  !- X,Y,Z ==> Vertex 4 {m}

  Shading:Building:Detailed,
    Shading Surface 158,     !- Name
    ,                        !- Transmittance Schedule Name
    ,                        !- Number of Vertices
    -79.3587924750953,103.801951521653,6,  !- X,Y,Z ==> Vertex 1 {m}
    -79.3587924750953,103.801951521653,0,  !- X,Y,Z ==> Vertex 2 {m}
    -66.0572237418932,82.2714033169173,0,  !- X,Y,Z ==> Vertex 3 {m}
    -66.0572237418932,82.2714033169173,6;  !- X,Y,Z ==> Vertex 4 {m}

  Shading:Building:Detailed,
    Shading Surface 159,     !- Name
    ,                        !- Transmittance Schedule Name
    ,                        !- Number of Vertices
    -54.2472205160659,89.4481501292807,0,  !- X,Y,Z ==> Vertex 1 {m}
    -66.0572237418932,82.2714033169173,0,  !- X,Y,Z ==> Vertex 2 {m}
    -79.3587924750953,103.801951521653,0,  !- X,Y,Z ==> Vertex 3 {m}
    -68.0460659318339,110.978669444334,0;  !- X,Y,Z ==> Vertex 4 {m}

  Shading:Building:Detailed,
    Shading Surface 160,     !- Name
    ,                        !- Transmittance Schedule Name
    ,                        !- Number of Vertices
    -66.0572237418932,82.2714033169173,6,  !- X,Y,Z ==> Vertex 1 {m}
    -66.0572237418932,82.2714033169173,0,  !- X,Y,Z ==> Vertex 2 {m}
    -54.2472205160659,89.4481501292807,0,  !- X,Y,Z ==> Vertex 3 {m}
    -54.2472205160659,89.4481501292807,6;  !- X,Y,Z ==> Vertex 4 {m}

  Shading:Building:Detailed,
    Shading Surface 10,      !- Name
    ,                        !- Transmittance Schedule Name
    ,                        !- Number of Vertices
    -115.807238771831,35.4229291721468,6,  !- X,Y,Z ==> Vertex 1 {m}
    -115.807238771831,35.4229291721468,0,  !- X,Y,Z ==> Vertex 2 {m}
    -115.807005171661,54.7261845261723,0,  !- X,Y,Z ==> Vertex 3 {m}
    -115.807005171661,54.7261845261723,6;  !- X,Y,Z ==> Vertex 4 {m}

  Shading:Building:Detailed,
    Shading Surface 11,      !- Name
    ,                        !- Transmittance Schedule Name
    ,                        !- Number of Vertices
    -115.807005171661,54.7261845261723,6,  !- X,Y,Z ==> Vertex 1 {m}