  Version,9.5;

  Timestep,1;

  LifeCycleCost:Parameters,
    Life Cycle Cost Parameters,  !- Name
    EndOfYear,               !- Discounting Convention
    ConstantDollar,          !- Inflation Approach
    0.03,                    !- Real Discount Rate
    ,                        !- Nominal Discount Rate
    ,                        !- Inflation
    ,                        !- Base Date Month
    2011,                    !- Base Date Year
    ,                        !- Service Date Month
    2011,                    !- Service Date Year
    25,                      !- Length of Study Period in Years
    ,                        !- Tax rate
    None;                    !- Depreciation Method

  LifeCycleCost:UsePriceEscalation,
    U.S. Avg  Commercial-Electricity,  !- LCC Price Escalation Name
    Electricity,             !- Resource
    2011,                    !- Escalation Start Year
    January,                 !- Escalation Start Month
    0.9838,                  !- Year 1 Escalation
    0.9730,                  !- Year 2 Escalation
    0.9632,                  !- Year 3 Escalation
    0.9611,                  !- Year 4 Escalation
    0.9571,                  !- Year 5 Escalation
    0.9553,                  !- Year 6 Escalation
    0.9539,                  !- Year 7 Escalation
    0.9521,                  !- Year 8 Escalation
    0.9546,                  !- Year 9 Escalation
    0.9550,                  !- <none>
    0.9553,                  !- <none>
    0.9564,                  !- <none>
    0.9575,                  !- <none>
    0.9596,                  !- <none>
    0.9618,                  !- <none>
    0.9614,                  !- <none>
    0.9618,                  !- <none>
    0.9618,                  !- <none>
    0.9593,                  !- <none>
    0.9589,                  !- <none>
    0.9607,                  !- <none>
    0.9625,                  !- <none>
    0.9650,                  !- <none>
    0.9708,                  !- <none>
    0.9751,                  !- <none>
    0.9762,                  !- <none>
    0.9766,                  !- <none>
    0.9766,                  !- <none>
    0.9769,                  !- <none>
    0.9773;                  !- <none>

  LifeCycleCost:UsePriceEscalation,
    U.S. Avg  Commercial-Distillate Oil,  !- LCC Price Escalation Name
    FuelOilNo1,              !- Resource
    2011,                    !- Escalation Start Year
    January,                 !- Escalation Start Month
    0.9714,                  !- Year 1 Escalation
    0.9730,                  !- Year 2 Escalation
    0.9942,                  !- Year 3 Escalation
    1.0164,                  !- Year 4 Escalation
    1.0541,                  !- Year 5 Escalation
    1.0928,                  !- Year 6 Escalation
    1.1267,                  !- Year 7 Escalation
    1.1580,                  !- Year 8 Escalation
    1.1792,                  !- Year 9 Escalation
    1.1967,                  !- <none>
    1.2200,                  !- <none>
    1.2333,                  !- <none>
    1.2566,                  !- <none>
    1.2709,                  !- <none>
    1.2826,                  !- <none>
    1.2985,                  !- <none>
    1.3102,                  !- <none>
    1.3250,                  !- <none>
    1.3261,                  !- <none>
    1.3282,                  !- <none>
    1.3324,                  !- <none>
    1.3356,                  !- <none>
    1.3431,                  !- <none>
    1.3510,                  !- <none>
    1.3568,                  !- <none>
    1.3606,                  !- <none>
    1.3637,                  !- <none>
    1.3674,                  !- <none>
    1.3706,                  !- <none>
    1.3743;                  !- <none>

  LifeCycleCost:UsePriceEscalation,
    U.S. Avg  Commercial-Residual Oil,  !- LCC Price Escalation Name
    FuelOilNo2,              !- Resource
    2011,                    !- Escalation Start Year
    January,                 !- Escalation Start Month
    0.8469,                  !- Year 1 Escalation
    0.8257,                  !- Year 2 Escalation
    0.8681,                  !- Year 3 Escalation
    0.8988,                  !- Year 4 Escalation
    0.9289,                  !- Year 5 Escalation
    0.9604,                  !- Year 6 Escalation
    0.9897,                  !- Year 7 Escalation
    1.0075,                  !- Year 8 Escalation
    1.0314,                  !- Year 9 Escalation
    1.0554,                  !- <none>
    1.0861,                  !- <none>
    1.1278,                  !- <none>
    1.1497,                  !- <none>
    1.1620,                  !- <none>
    1.1743,                  !- <none>
    1.1852,                  !- <none>
    1.1948,                  !- <none>
    1.2037,                  !- <none>
    1.2071,                  !- <none>
    1.2119,                  !- <none>
    1.2139,                  !- <none>
    1.2194,                  !- <none>
    1.2276,                  !- <none>
    1.2365,                  !- <none>
    1.2420,                  !- <none>
    1.2461,                  !- <none>
    1.2509,                  !- <none>
    1.2550,                  !- <none>
    1.2591,                  !- <none>
    1.2638;                  !- <none>

  LifeCycleCost:UsePriceEscalation,
    U.S. Avg  Commercial-Natural gas,  !- LCC Price Escalation Name
    NaturalGas,              !- Resource
    2011,                    !- Escalation Start Year
    January,                 !- Escalation Start Month
    0.9823,                  !- Year 1 Escalation
    0.9557,                  !- Year 2 Escalation
    0.9279,                  !- Year 3 Escalation
    0.9257,                  !- Year 4 Escalation
    0.9346,                  !- Year 5 Escalation
    0.9412,                  !- Year 6 Escalation
    0.9512,                  !- Year 7 Escalation
    0.9645,                  !- Year 8 Escalation
    0.9856,                  !- Year 9 Escalation
    1.0067,                  !- <none>
    1.0222,                  !- <none>
    1.0410,                  !- <none>
    1.0610,                  !- <none>
    1.0787,                  !- <none>
    1.0942,                  !- <none>
    1.1098,                  !- <none>
    1.1220,                  !- <none>
    1.1308,                  !- <none>
    1.1386,                  !- <none>
    1.1486,                  !- <none>
    1.1619,                  !- <none>
    1.1763,                  !- <none>
    1.1918,                  !- <none>
    1.2118,                  !- <none>
    1.2284,                  !- <none>
    1.2439,                  !- <none>
    1.2605,                  !- <none>
    1.2772,                  !- <none>
    1.2938,                  !- <none>
    1.3115;                  !- <none>

  LifeCycleCost:UsePriceEscalation,
    U.S. Avg  Commercial-Coal,  !- LCC Price Escalation Name
    Coal,                    !- Resource
    2011,                    !- Escalation Start Year
    January,                 !- Escalation Start Month
    0.9970,                  !- Year 1 Escalation
    1.0089,                  !- Year 2 Escalation
    1.0089,                  !- Year 3 Escalation
    0.9941,                  !- Year 4 Escalation
    0.9941,                  !- Year 5 Escalation
    1.0000,                  !- Year 6 Escalation
    1.0030,                  !- Year 7 Escalation
    1.0059,                  !- Year 8 Escalation
    1.0089,                  !- Year 9 Escalation
    1.0119,                  !- <none>
    1.0148,                  !- <none>
    1.0178,                  !- <none>
    1.0208,                  !- <none>
    1.0267,                  !- <none>
    1.0297,                  !- <none>
    1.0356,                  !- <none>
    1.0415,                  !- <none>
    1.0534,                  !- <none>
    1.0564,                  !- <none>
    1.0593,                  !- <none>
    1.0653,                  !- <none>
    1.0712,                  !- <none>
    1.0742,                  !- <none>
    1.0801,                  !- <none>
    1.0831,                  !- <none>
    1.0831,                  !- <none>
    1.0861,                  !- <none>
    1.0890,                  !- <none>
    1.0920,                  !- <none>
    1.0950;                  !- <none>

  Building,
    Koledo Ln 17402,         !- Name
    ,                        !- North Axis {deg}
    City,                    !- Terrain
    ,                        !- Loads Convergence Tolerance Value {W}
    ,                        !- Temperature Convergence Tolerance Value {deltaC}
    ,                        !- Solar Distribution
    ,                        !- Maximum Number of Warmup Days
    ;                        !- Minimum Number of Warmup Days

  Shading:Building:Detailed,
    Shading Surface 85,      !- Name
    ,                        !- Transmittance Schedule Name
    ,                        !- Number of Vertices
    0.230268382405978,136.652911429285,6,  !- X,Y,Z ==> Vertex 1 {m}
    0.230268382405978,136.652911429285,0,  !- X,Y,Z ==> Vertex 2 {m}
    12.6618705299019,136.652919803,0,  !- X,Y,Z ==> Vertex 3 {m}
    12.6618705299019,136.652919803,6;  !- X,Y,Z ==> Vertex 4 {m}

  Shading:Building:Detailed,
    Shading Surface 86,      !- Name
    ,                        !- Transmittance Schedule Name
    ,                        !- Number of Vertices
    12.6618705299019,136.652919803,0,  !- X,Y,Z ==> Vertex 1 {m}
    0.230268382405978,136.652911429285,0,  !- X,Y,Z ==> Vertex 2 {m}
    0.230267897030998,156.822340433147,0,  !- X,Y,Z ==> Vertex 3 {m}
    12.6618438426997,156.822348806862,0;  !- X,Y,Z ==> Vertex 4 {m}

  Shading:Building:Detailed,
    Shading Surface 87,      !- Name
    ,                        !- Transmittance Schedule Name
    ,                        !- Number of Vertices
    12.6618438426997,156.822348806862,6,  !- X,Y,Z ==> Vertex 1 {m}
    0.230267897030998,156.822340433147,6,  !- X,Y,Z ==> Vertex 2 {m}
    0.230268382405978,136.652911429285,6,  !- X,Y,Z ==> Vertex 3 {m}
    12.6618705299019,136.652919803,6;  !- X,Y,Z ==> Vertex 4 {m}

  Shading:Building:Detailed,
    Shading Surface 88,      !- Name
    ,                        !- Transmittance Schedule Name
    ,                        !- Number of Vertices
    12.6618705299019,136.652919803,6,  !- X,Y,Z ==> Vertex 1 {m}
    12.6618705299019,136.652919803,0,  !- X,Y,Z ==> Vertex 2 {m}
    12.6618438426997,156.822348806862,0,  !- X,Y,Z ==> Vertex 3 {m}
    12.6618438426997,156.822348806862,6;  !- X,Y,Z ==> Vertex 4 {m}

  Shading:Building:Detailed,
    Shading Surface 89,      !- Name
    ,                        !- Transmittance Schedule Name
    ,                        !- Number of Vertices
    0.230267897030998,156.822340433147,6,  !- X,Y,Z ==> Vertex 1 {m}
    0.230267897030998,156.822340433147,0,  !- X,Y,Z ==> Vertex 2 {m}
    0.230268382405978,136.652911429285,0,  !- X,Y,Z ==> Vertex 3 {m}
    0.230268382405978,136.652911429285,6;  !- X,Y,Z ==> Vertex 4 {m}

  Shading:Building:Detailed,
    Shading Surface 90,      !- Name
    ,                        !- Transmittance Schedule Name
    ,                        !- Number of Vertices
    12.6618438426997,156.822348806862,6,  !- X,Y,Z ==> Vertex 1 {m}
    12.6618438426997,156.822348806862,0,  !- X,Y,Z ==> Vertex 2 {m}
    0.230267897030998,156.822340433147,0,  !- X,Y,Z ==> Vertex 3 {m}
    0.230267897030998,156.822340433147,6;  !- X,Y,Z ==> Vertex 4 {m}

  Shading:Building:Detailed,
    Shading Surface 79,      !- Name
    ,                        !- Transmittance Schedule Name
    ,                        !- Number of Vertices
    13.0348764480773,94.1739706927627,0,  !- X,Y,Z ==> Vertex 1 {m}
    0.150167165363843,94.1739618167783,0,  !- X,Y,Z ==> Vertex 2 {m}
    0.150166857307021,113.801786707116,0,  !- X,Y,Z ==> Vertex 3 {m}
    13.0348497132233,113.80179558288,0;  !- X,Y,Z ==> Vertex 4 {m}

  Shading:Building:Detailed,
    Shading Surface 80,      !- Name
    ,                        !- Transmittance Schedule Name
    ,                        !- Number of Vertices
    0.150166857307021,113.801786707116,6,  !- X,Y,Z ==> Vertex 1 {m}
    0.150166857307021,113.801786707116,0,  !- X,Y,Z ==> Vertex 2 {m}
    0.150167165363843,94.1739618167783,0,  !- X,Y,Z ==> Vertex 3 {m}
    0.150167165363843,94.1739618167783,6;  !- X,Y,Z ==> Vertex 4 {m}

  Shading:Building:Detailed,
    Shading Surface 81,      !- Name
    ,                        !- Transmittance Schedule Name
    ,                        !- Number of Vertices
    13.0348497132233,113.80179558288,6,  !- X,Y,Z ==> Vertex 1 {m}
    13.0348497132233,113.80179558288,0,  !- X,Y,Z ==> Vertex 2 {m}
    0.150166857307021,113.801786707116,0,  !- X,Y,Z ==> Vertex 3 {m}
    0.150166857307021,113.801786707116,6;  !- X,Y,Z ==> Vertex 4 {m}

  Shading:Building:Detailed,
    Shading Surface 82,      !- Name
    ,                        !- Transmittance Schedule Name
    ,                        !- Number of Vertices
    13.0348497132233,113.80179558288,6,  !- X,Y,Z ==> Vertex 1 {m}
    0.150166857307021,113.801786707116,6,  !- X,Y,Z ==> Vertex 2 {m}
    0.150167165363843,94.1739618167783,6,  !- X,Y,Z ==> Vertex 3 {m}
    13.0348764480773,94.1739706927627,6;  !- X,Y,Z ==> Vertex 4 {m}

  Shading:Building:Detailed,
    Shading Surface 83,      !- Name
    ,                        !- Transmittance Schedule Name
    ,                        !- Number of Vertices
    13.0348764480773,94.1739706927627,6,  !- X,Y,Z ==> Vertex 1 {m}
    13.0348764480773,94.1739706927627,0,  !- X,Y,Z ==> Vertex 2 {m}
    13.0348497132233,113.80179558288,0,  !- X,Y,Z ==> Vertex 3 {m}
    13.0348497132233,113.80179558288,6;  !- X,Y,Z ==> Vertex 4 {m}

  Shading:Building:Detailed,
    Shading Surface 84,      !- Name
    ,                        !- Transmittance Schedule Name
    ,                        !- Number of Vertices
    0.150167165363843,94.1739618167783,6,  !- X,Y,Z ==> Vertex 1 {m}
    0.150167165363843,94.1739618167783,0,  !- X,Y,Z ==> Vertex 2 {m}
    13.0348764480773,94.1739706927627,0,  !- X,Y,Z ==> Vertex 3 {m}
    13.0348764480773,94.1739706927627,6;  !- X,Y,Z ==> Vertex 4 {m}

  Shading:Building:Detailed,
    Shading Surface 31,      !- Name
    ,                        !- Transmittance Schedule Name
    ,                        !- Number of Vertices
    37.0277307833159,157.317366845941,6,  !- X,Y,Z ==> Vertex 1 {m}
    37.0277307833159,157.317366845941,0,  !- X,Y,Z ==> Vertex 2 {m}
    23.7259452089494,157.317324623225,0,  !- X,Y,Z ==> Vertex 3 {m}
    23.7259452089494,157.317324623225,6;  !- X,Y,Z ==> Vertex 4 {m}

  Shading:Building:Detailed,
    Shading Surface 32,      !- Name
    ,                        !- Transmittance Schedule Name
    ,                        !- Number of Vertices
    23.7259930672274,138.014069272717,6,  !- X,Y,Z ==> Vertex 1 {m}
    23.7259930672274,138.014069272717,0,  !- X,Y,Z ==> Vertex 2 {m}
    37.027805474201,138.014111495372,0,  !- X,Y,Z ==> Vertex 3 {m}
    37.027805474201,138.014111495372,6;  !- X,Y,Z ==> Vertex 4 {m}

  Shading:Building:Detailed,
    Shading Surface 33,      !- Name
    ,                        !- Transmittance Schedule Name
    ,                        !- Number of Vertices
    23.7259452089494,157.317324623225,6,  !- X,Y,Z ==> Vertex 1 {m}
    23.7259452089494,157.317324623225,0,  !- X,Y,Z ==> Vertex 2 {m}
    23.7259930672274,138.014069272717,0,  !- X,Y,Z ==> Vertex 3 {m}
    23.7259930672274,138.014069272717,6;  !- X,Y,Z ==> Vertex 4 {m}

  Shading:Building:Detailed,
    Shading Surface 34,      !- Name
    ,                        !- Transmittance Schedule Name
    ,                        !- Number of Vertices
    37.027805474201,138.014111495372,0,  !- X,Y,Z ==> Vertex 1 {m}
    23.7259930672274,138.014069272717,0,  !- X,Y,Z ==> Vertex 2 {m}
    23.7259452089494,157.317324623225,0,  !- X,Y,Z ==> Vertex 3 {m}
    37.0277307833159,157.317366845941,0;  !- X,Y,Z ==> Vertex 4 {m}

  Shading:Building:Detailed,
    Shading Surface 35,      !- Name
    ,                        !- Transmittance Schedule Name
    ,                        !- Number of Vertices
    37.0277307833159,157.317366845941,6,  !- X,Y,Z ==> Vertex 1 {m}
    23.7259452089494,157.317324623225,6,  !- X,Y,Z ==> Vertex 2 {m}
    23.7259930672274,138.014069272717,6,  !- X,Y,Z ==> Vertex 3 {m}
    37.027805474201,138.014111495372,6;  !- X,Y,Z ==> Vertex 4 {m}

  Shading:Building:Detailed,
    Shading Surface 36,      !- Name
    ,                        !- Transmittance Schedule Name
    ,                        !- Number of Vertices
    37.027805474201,138.014111495372,6,  !- X,Y,Z ==> Vertex 1 {m}
    37.027805474201,138.014111495372,0,  !- X,Y,Z ==> Vertex 2 {m}
    37.0277307833159,157.317366845941,0,  !- X,Y,Z ==> Vertex 3 {m}
    37.0277307833159,157.317366845941,6;  !- X,Y,Z ==> Vertex 4 {m}

  Shading:Building:Detailed,
    Shading Surface 37,      !- Name
    ,                        !- Transmittance Schedule Name
    ,                        !- Number of Vertices
    37.525166671268,113.229899833705,6,  !- X,Y,Z ==> Vertex 1 {m}
    37.525166671268,113.229899833705,0,  !- X,Y,Z ==> Vertex 2 {m}
    25.839432046223,113.229861147121,0,  !- X,Y,Z ==> Vertex 3 {m}
    25.839432046223,113.229861147121,6;  !- X,Y,Z ==> Vertex 4 {m}

  Shading:Building:Detailed,
    Shading Surface 38,      !- Name
    ,                        !- Transmittance Schedule Name
    ,                        !- Number of Vertices
    37.525166671268,113.229899833705,6,  !- X,Y,Z ==> Vertex 1 {m}
    25.839432046223,113.229861147121,6,  !- X,Y,Z ==> Vertex 2 {m}
    25.8394828312042,94.4214757000789,6,  !- X,Y,Z ==> Vertex 3 {m}
    37.5252404233446,94.421514387121,6;  !- X,Y,Z ==> Vertex 4 {m}

  Shading:Building:Detailed,
    Shading Surface 39,      !- Name
    ,                        !- Transmittance Schedule Name
    ,                        !- Number of Vertices
    25.839432046223,113.229861147121,6,  !- X,Y,Z ==> Vertex 1 {m}
    25.839432046223,113.229861147121,0,  !- X,Y,Z ==> Vertex 2 {m}
    25.8394828312042,94.4214757000789,0,  !- X,Y,Z ==> Vertex 3 {m}
    25.8394828312042,94.4214757000789,6;  !- X,Y,Z ==> Vertex 4 {m}

  Shading:Building:Detailed,
    Shading Surface 40,      !- Name
    ,                        !- Transmittance Schedule Name
    ,                        !- Number of Vertices
    37.5252404233446,94.421514387121,6,  !- X,Y,Z ==> Vertex 1 {m}
    37.5252404233446,94.421514387121,0,  !- X,Y,Z ==> Vertex 2 {m}
    37.525166671268,113.229899833705,0,  !- X,Y,Z ==> Vertex 3 {m}
    37.525166671268,113.229899833705,6;  !- X,Y,Z ==> Vertex 4 {m}

  Shading:Building:Detailed,
    Shading Surface 41,      !- Name
    ,                        !- Transmittance Schedule Name
    ,                        !- Number of Vertices
    25.8394828312042,94.4214757000789,6,  !- X,Y,Z ==> Vertex 1 {m}
    25.8394828312042,94.4214757000789,0,  !- X,Y,Z ==> Vertex 2 {m}
    37.5252404233446,94.421514387121,0,  !- X,Y,Z ==> Vertex 3 {m}
    37.5252404233446,94.421514387121,6;  !- X,Y,Z ==> Vertex 4 {m}

  Shading:Building:Detailed,
    Shading Surface 42,      !- Name
    ,                        !- Transmittance Schedule Name
    ,                        !- Number of Vertices
    37.5252404233446,94.421514387121,0,  !- X,Y,Z ==> Vertex 1 {m}
    25.8394828312042,94.4214757000789,0,  !- X,Y,Z ==> Vertex 2 {m}
    25.839432046223,113.229861147121,0,  !- X,Y,Z ==> Vertex 3 {m}
    37.525166671268,113.229899833705,0;  !- X,Y,Z ==> Vertex 4 {m}

  Shading:Building:Detailed,
    Shading Surface 43,      !- Name
    ,                        !- Transmittance Schedule Name
    ,                        !- Number of Vertices
    48.0919273254273,138.509116446089,6,  !- X,Y,Z ==> Vertex 1 {m}
    48.0919273254273,138.509116446089,0,  !- X,Y,Z ==> Vertex 2 {m}
    48.0918365352009,156.574983866766,0,  !- X,Y,Z ==> Vertex 3 {m}
    48.0918365352009,156.574983866766,6;  !- X,Y,Z ==> Vertex 4 {m}

  Shading:Building:Detailed,
    Shading Surface 44,      !- Name
    ,                        !- Transmittance Schedule Name
    ,                        !- Number of Vertices
    37.7736995422885,138.509070156097,6,  !- X,Y,Z ==> Vertex 1 {m}
    37.7736995422885,138.509070156097,0,  !- X,Y,Z ==> Vertex 2 {m}
    48.0919273254273,138.509116446089,0,  !- X,Y,Z ==> Vertex 3 {m}
    48.0919273254273,138.509116446089,6;  !- X,Y,Z ==> Vertex 4 {m}

  Shading:Building:Detailed,
    Shading Surface 45,      !- Name
    ,                        !- Transmittance Schedule Name
    ,                        !- Number of Vertices
    37.7736282307211,156.574937577189,6,  !- X,Y,Z ==> Vertex 1 {m}
    37.7736282307211,156.574937577189,0,  !- X,Y,Z ==> Vertex 2 {m}
    37.7736995422885,138.509070156097,0,  !- X,Y,Z ==> Vertex 3 {m}
    37.7736995422885,138.509070156097,6;  !- X,Y,Z ==> Vertex 4 {m}

  Shading:Building:Detailed,
    Shading Surface 46,      !- Name
    ,                        !- Transmittance Schedule Name
    ,                        !- Number of Vertices
    48.0918365352009,156.574983866766,6,  !- X,Y,Z ==> Vertex 1 {m}
    37.7736282307211,156.574937577189,6,  !- X,Y,Z ==> Vertex 2 {m}
    37.7736995422885,138.509070156097,6,  !- X,Y,Z ==> Vertex 3 {m}
    48.0919273254273,138.509116446089,6;  !- X,Y,Z ==> Vertex 4 {m}

  Shading:Building:Detailed,
    Shading Surface 47,      !- Name
    ,                        !- Transmittance Schedule Name
    ,                        !- Number of Vertices
    48.0918365352009,156.574983866766,6,  !- X,Y,Z ==> Vertex 1 {m}
    48.0918365352009,156.574983866766,0,  !- X,Y,Z ==> Vertex 2 {m}
    37.7736282307211,156.574937577189,0,  !- X,Y,Z ==> Vertex 3 {m}
    37.7736282307211,156.574937577189,6;  !- X,Y,Z ==> Vertex 4 {m}

  Shading:Building:Detailed,
    Shading Surface 48,      !- Name
    ,                        !- Transmittance Schedule Name
    ,                        !- Number of Vertices
    48.0919273254273,138.509116446089,0,  !- X,Y,Z ==> Vertex 1 {m}
    37.7736995422885,138.509070156097,0,  !- X,Y,Z ==> Vertex 2 {m}
    37.7736282307211,156.574937577189,0,  !- X,Y,Z ==> Vertex 3 {m}
    48.0918365352009,156.574983866766,0;  !- X,Y,Z ==> Vertex 4 {m}

  Shading:Building:Detailed,
    Shading Surface 49,      !- Name
    ,                        !- Transmittance Schedule Name
    ,                        !- Number of Vertices
    49.4596324305665,94.1740896248448,0,  !- X,Y,Z ==> Vertex 1 {m}
    37.8981911120467,94.1740368565643,0,  !- X,Y,Z ==> Vertex 2 {m}
    37.8981161367382,113.106162047193,0,  !- X,Y,Z ==> Vertex 3 {m}
    49.4595345827202,113.106214815399,0;  !- X,Y,Z ==> Vertex 4 {m}

  Shading:Building:Detailed,
    Shading Surface 50,      !- Name
    ,                        !- Transmittance Schedule Name
    ,                        !- Number of Vertices
    49.4595345827202,113.106214815399,6,  !- X,Y,Z ==> Vertex 1 {m}
    49.4595345827202,113.106214815399,0,  !- X,Y,Z ==> Vertex 2 {m}
    37.8981161367382,113.106162047193,0,  !- X,Y,Z ==> Vertex 3 {m}
    37.8981161367382,113.106162047193,6;  !- X,Y,Z ==> Vertex 4 {m}

  Shading:Building:Detailed,
    Shading Surface 51,      !- Name
    ,                        !- Transmittance Schedule Name
    ,                        !- Number of Vertices
    37.8981911120467,94.1740368565643,6,  !- X,Y,Z ==> Vertex 1 {m}
    37.8981911120467,94.1740368565643,0,  !- X,Y,Z ==> Vertex 2 {m}
    49.4596324305665,94.1740896248448,0,  !- X,Y,Z ==> Vertex 3 {m}
    49.4596324305665,94.1740896248448,6;  !- X,Y,Z ==> Vertex 4 {m}

  Shading:Building:Detailed,
    Shading Surface 52,      !- Name
    ,                        !- Transmittance Schedule Name
    ,                        !- Number of Vertices
    49.4595345827202,113.106214815399,6,  !- X,Y,Z ==> Vertex 1 {m}
    37.8981161367382,113.106162047193,6,  !- X,Y,Z ==> Vertex 2 {m}
    37.8981911120467,94.1740368565643,6,  !- X,Y,Z ==> Vertex 3 {m}
    49.4596324305665,94.1740896248448,6;  !- X,Y,Z ==> Vertex 4 {m}

  Shading:Building:Detailed,
    Shading Surface 53,      !- Name
    ,                        !- Transmittance Schedule Name
    ,                        !- Number of Vertices
    49.4596324305665,94.1740896248448,6,  !- X,Y,Z ==> Vertex 1 {m}
    49.4596324305665,94.1740896248448,0,  !- X,Y,Z ==> Vertex 2 {m}
    49.4595345827202,113.106214815399,0,  !- X,Y,Z ==> Vertex 3 {m}
    49.4595345827202,113.106214815399,6;  !- X,Y,Z ==> Vertex 4 {m}

  Shading:Building:Detailed,
    Shading Surface 54,      !- Name
    ,                        !- Transmittance Schedule Name
    ,                        !- Number of Vertices
    37.8981161367382,113.106162047193,6,  !- X,Y,Z ==> Vertex 1 {m}
    37.8981161367382,113.106162047193,0,  !- X,Y,Z ==> Vertex 2 {m}
    37.8981911120467,94.1740368565643,0,  !- X,Y,Z ==> Vertex 3 {m}
    37.8981911120467,94.1740368565643,6;  !- X,Y,Z ==> Vertex 4 {m}

  Shading:Building:Detailed,
    Shading Surface 61,      !- Name
    ,                        !- Transmittance Schedule Name
    ,                        !- Number of Vertices
    73.4523888881649,138.756755359875,6,  !- X,Y,Z ==> Vertex 1 {m}
    73.4523888881649,138.756755359875,0,  !- X,Y,Z ==> Vertex 2 {m}
    73.4522464223499,157.317577098196,0,  !- X,Y,Z ==> Vertex 3 {m}
    73.4522464223499,157.317577098196,6;  !- X,Y,Z ==> Vertex 4 {m}

  Shading:Building:Detailed,
    Shading Surface 62,      !- Name
    ,                        !- Transmittance Schedule Name
    ,                        !- Number of Vertices
    73.4522464223499,157.317577098196,6,  !- X,Y,Z ==> Vertex 1 {m}
    60.3990923561238,157.317485812684,6,  !- X,Y,Z ==> Vertex 2 {m}
    60.3992095042108,138.756664074107,6,  !- X,Y,Z ==> Vertex 3 {m}
    73.4523888881649,138.756755359875,6;  !- X,Y,Z ==> Vertex 4 {m}

  Shading:Building:Detailed,
    Shading Surface 63,      !- Name
    ,                        !- Transmittance Schedule Name
    ,                        !- Number of Vertices
    60.3992095042108,138.756664074107,6,  !- X,Y,Z ==> Vertex 1 {m}
    60.3992095042108,138.756664074107,0,  !- X,Y,Z ==> Vertex 2 {m}
    73.4523888881649,138.756755359875,0,  !- X,Y,Z ==> Vertex 3 {m}
    73.4523888881649,138.756755359875,6;  !- X,Y,Z ==> Vertex 4 {m}

  Shading:Building:Detailed,
    Shading Surface 64,      !- Name
    ,                        !- Transmittance Schedule Name
    ,                        !- Number of Vertices
    60.3990923561238,157.317485812684,6,  !- X,Y,Z ==> Vertex 1 {m}
    60.3990923561238,157.317485812684,0,  !- X,Y,Z ==> Vertex 2 {m}
    60.3992095042108,138.756664074107,0,  !- X,Y,Z ==> Vertex 3 {m}
    60.3992095042108,138.756664074107,6;  !- X,Y,Z ==> Vertex 4 {m}

  Shading:Building:Detailed,
    Shading Surface 65,      !- Name
    ,                        !- Transmittance Schedule Name
    ,                        !- Number of Vertices
    73.4522464223499,157.317577098196,6,  !- X,Y,Z ==> Vertex 1 {m}
    73.4522464223499,157.317577098196,0,  !- X,Y,Z ==> Vertex 2 {m}
    60.3990923561238,157.317485812684,0,  !- X,Y,Z ==> Vertex 3 {m}
    60.3990923561238,157.317485812684,6;  !- X,Y,Z ==> Vertex 4 {m}

  Shading:Building:Detailed,
    Shading Surface 66,      !- Name
    ,                        !- Transmittance Schedule Name
    ,                        !- Number of Vertices
    73.4523888881649,138.756755359875,0,  !- X,Y,Z ==> Vertex 1 {m}
    60.3992095042108,138.756664074107,0,  !- X,Y,Z ==> Vertex 2 {m}
    60.3990923561238,157.317485812684,0,  !- X,Y,Z ==> Vertex 3 {m}
    73.4522464223499,157.317577098196,0;  !- X,Y,Z ==> Vertex 4 {m}

  Shading:Building:Detailed,
    Shading Surface 55,      !- Name
    ,                        !- Transmittance Schedule Name
    ,                        !- Number of Vertices
    74.1984837303658,113.106374647571,6,  !- X,Y,Z ==> Vertex 1 {m}
    60.3993713913956,113.106277607624,6,  !- X,Y,Z ==> Vertex 2 {m}
    60.3994861958112,94.9165893971738,6,  !- X,Y,Z ==> Vertex 3 {m}
    74.1986247636729,94.9166864374939,6;  !- X,Y,Z ==> Vertex 4 {m}

  Shading:Building:Detailed,
    Shading Surface 56,      !- Name
    ,                        !- Transmittance Schedule Name
    ,                        !- Number of Vertices
    74.1986247636729,94.9166864374939,6,  !- X,Y,Z ==> Vertex 1 {m}
    74.1986247636729,94.9166864374939,0,  !- X,Y,Z ==> Vertex 2 {m}
    74.1984837303658,113.106374647571,0,  !- X,Y,Z ==> Vertex 3 {m}
    74.1984837303658,113.106374647571,6;  !- X,Y,Z ==> Vertex 4 {m}

  Shading:Building:Detailed,
    Shading Surface 57,      !- Name
    ,                        !- Transmittance Schedule Name
    ,                        !- Number of Vertices
    74.1984837303658,113.106374647571,6,  !- X,Y,Z ==> Vertex 1 {m}
    74.1984837303658,113.106374647571,0,  !- X,Y,Z ==> Vertex 2 {m}
    60.3993713913956,113.106277607624,0,  !- X,Y,Z ==> Vertex 3 {m}
    60.3993713913956,113.106277607624,6;  !- X,Y,Z ==> Vertex 4 {m}

  Shading:Building:Detailed,
    Shading Surface 58,      !- Name
    ,                        !- Transmittance Schedule Name
    ,                        !- Number of Vertices
    60.3993713913956,113.106277607624,6,  !- X,Y,Z ==> Vertex 1 {m}
    60.3993713913956,113.106277607624,0,  !- X,Y,Z ==> Vertex 2 {m}